12
angstrom - 0
C 3.0000 4.4027 3.0000
H 3.0000 5.4903 3.0000
C 1.7852 3.7014 3.0000
H 0.8433 4.2451 3.0000
C 1.7852 2.2986 3.0000
H 0.8433 1.7549 3.0000
C 3.0000 1.5973 3.0000
H 3.0000 0.5097 3.0000
C 4.2148 2.2986 3.0000
H 5.1567 1.7549 3.0000
C 4.2148 3.7014 3.0000
H 5.1567 4.2451 3.0000
12
angstrom - 1
C 4.0000 4.4027 3.0000
H 4.0000 5.4903 3.0000
C 2.7852 3.7014 3.0000
H 1.8433 4.2451 3.0000
C 2.7852 2.2986 3.0000
H 1.8433 1.7549 3.0000
C 4.0000 1.5973 3.0000
H 4.0000 0.5097 3.0000
C 5.2148 2.2986 3.0000
H 6.1567 1.7549 3.0000
C 5.2148 3.7014 3.0000
H 6.1567 4.2451 3.0000
12
angstrom - 2
C 5.0000 4.4027 3.0000
H 5.0000 5.4903 3.0000
C 3.7852 3.7014 3.0000
H 2.8433 4.2451 3.0000
C 3.7852 2.2986 3.0000
H 2.8433 1.7549 3.0000
C 5.0000 1.5973 3.0000
H 5.0000 0.5097 3.0000
C 6.2148 2.2986 3.0000
H 7.1567 1.7549 3.0000
C 6.2148 3.7014 3.0000
H 7.1567 4.2451 3.0000
12
angstrom - 3
C 6.0000 4.4027 3.0000
H 6.0000 5.4903 3.0000
C 4.7852 3.7014 3.0000
H 3.8433 4.2451 3.0000
C 4.7852 2.2986 3.0000
H 3.8433 1.7549 3.0000
C 6.0000 1.5973 3.0000
H 6.0000 0.5097 3.0000
C 7.2148 2.2986 3.0000
H 8.1567 1.7549 3.0000
C 7.2148 3.7014 3.0000
H 8.1567 4.2451 3.0000
12
angstrom - 4
C 7.0000 4.4027 3.0000
H 7.0000 5.4903 3.0000
C 5.7852 3.7014 3.0000
H 4.8433 4.2451 3.0000
C 5.7852 2.2986 3.0000
H 4.8433 1.7549 3.0000
C 7.0000 1.5973 3.0000
H 7.0000 0.5097 3.0000
C 8.2148 2.2986 3.0000
H 9.1567 1.7549 3.0000
C 8.2148 3.7014 3.0000
H 9.1567 4.2451 3.0000
12
angstrom - 5
C 8.0000 4.4027 3.0000
H 8.0000 5.4903 3.0000
C 6.7852 3.7014 3.0000
H 5.8433 4.2451 3.0000
C 6.7852 2.2986 3.0000
H 5.8433 1.7549 3.0000
C 8.0000 1.5973 3.0000
H 8.0000 0.5097 3.0000
C 9.2148 2.2986 3.0000
H 10.1567 1.7549 3.0000
C 9.2148 3.7014 3.0000
H 10.1567 4.2451 3.0000
12
angstrom - 6
C 9.0000 4.4027 3.0000
H 9.0000 5.4903 3.0000
C 7.7852 3.7014 3.0000
H 6.8433 4.2451 3.0000
C 7.7852 2.2986 3.0000
H 6.8433 1.7549 3.0000
C 9.0000 1.5973 3.0000
H 9.0000 0.5097 3.0000
C 10.2148 2.2986 3.0000
H 11.1567 1.7549 3.0000
C 10.2148 3.7014 3.0000
H 11.1567 4.2451 3.0000
12
angstrom - 7
C 10.0000 4.4027 3.0000
H 10.0000 5.4903 3.0000
C 8.7852 3.7014 3.0000
H 7.8433 4.2451 3.0000
C 8.7852 2.2986 3.0000
H 7.8433 1.7549 3.0000
C 10.0000 1.5973 3.0000
H 10.0000 0.5097 3.0000
C 11.2148 2.2986 3.0000
H 12.1567 1.7549 3.0000
C 11.2148 3.7014 3.0000
H 12.1567 4.2451 3.0000
12
angstrom - 8
C 11.0000 4.4027 3.0000
H 11.0000 5.4903 3.0000
C 9.7852 3.7014 3.0000
H 8.8433 4.2451 3.0000
C 9.7852 2.2986 3.0000
H 8.8433 1.7549 3.0000
C 11.0000 1.5973 3.0000
H 11.0000 0.5097 3.0000
C 12.2148 2.2986 3.0000
H 13.1567 1.7549 3.0000
C 12.2148 3.7014 3.0000
H 13.1567 4.2451 3.0000
12
angstrom - 9
C 12.0000 4.4027 3.0000
H 12.0000 5.4903 3.0000
C 10.7852 3.7014 3.0000
H 9.8433 4.2451 3.0000
C 10.7852 2.2986 3.0000
H 9.8433 1.7549 3.0000
C 12.0000 1.5973 3.0000
H 12.0000 0.5097 3.0000
C 13.2148 2.2986 3.0000
H 14.1567 1.7549 3.0000
C 13.2148 3.7014 3.0000
H 14.1567 4.2451 3.0000
12
angstrom - 10
C 13.0000 4.4027 3.0000
H 13.0000 5.4903 3.0000
C 11.7852 3.7014 3.0000
H 10.8433 4.2451 3.0000
C 11.7852 2.2986 3.0000
H 10.8433 1.7549 3.0000
C 13.0000 1.5973 3.0000
H 13.0000 0.5097 3.0000
C 14.2148 2.2986 3.0000
H 15.1567 1.7549 3.0000
C 14.2148 3.7014 3.0000
H 15.1567 4.2451 3.0000
12
angstrom - 11
C 14.0000 4.4027 3.0000
H 14.0000 5.4903 3.0000
C 12.7852 3.7014 3.0000
H 11.8433 4.2451 3.0000
C 12.7852 2.2986 3.0000
H 11.8433 1.7549 3.0000
C 14.0000 1.5973 3.0000
H 14.0000 0.5097 3.0000
C 15.2148 2.2986 3.0000
H 16.1567 1.7549 3.0000
C 15.2148 3.7014 3.0000
H 16.1567 4.2451 3.0000
12
angstrom - 12
C 15.0000 4.4027 3.0000
H 15.0000 5.4903 3.0000
C 13.7852 3.7014 3.0000
H 12.8433 4.2451 3.0000
C 13.7852 2.2986 3.0000
H 12.8433 1.7549 3.0000
C 15.0000 1.5973 3.0000
H 15.0000 0.5097 3.0000
C 16.2148 2.2986 3.0000
H 17.1567 1.7549 3.0000
C 16.2148 3.7014 3.0000
H 17.1567 4.2451 3.0000
12
angstrom - 13
C 16.0000 4.4027 3.0000
H 16.0000 5.4903 3.0000
C 14.7852 3.7014 3.0000
H 13.8433 4.2451 3.0000
C 14.7852 2.2986 3.0000
H 13.8433 1.7549 3.0000
C 16.0000 1.5973 3.0000
H 16.0000 0.5097 3.0000
C 17.2148 2.2986 3.0000
H 18.1567 1.7549 3.0000
C 17.2148 3.7014 3.0000
H 18.1567 4.2451 3.0000
12
angstrom - 14
C 17.0000 4.4027 3.0000
H 17.0000 5.4903 3.0000
C 15.7852 3.7014 3.0000
H 14.8433 4.2451 3.0000
C 15.7852 2.2986 3.0000
H 14.8433 1.7549 3.0000
C 17.0000 1.5973 3.0000
H 17.0000 0.5097 3.0000
C 18.2148 2.2986 3.0000
H 19.1567 1.7549 3.0000
C 18.2148 3.7014 3.0000
H 19.1567 4.2451 3.0000
12
angstrom - 15
C 18.0000 4.4027 3.0000
H 18.0000 5.4903 3.0000
C 16.7852 3.7014 3.0000
H 15.8433 4.2451 3.0000
C 16.7852 2.2986 3.0000
H 15.8433 1.7549 3.0000
C 18.0000 1.5973 3.0000
H 18.0000 0.5097 3.0000
C 19.2148 2.2986 3.0000
H 20.1567 1.7549 3.0000
C 19.2148 3.7014 3.0000
H 20.1567 4.2451 3.0000
12
angstrom - 16
C 19.0000 4.4027 3.0000
H 19.0000 5.4903 3.0000
C 17.7852 3.7014 3.0000
H 16.8433 4.2451 3.0000
C 17.7852 2.2986 3.0000
H 16.8433 1.7549 3.0000
C 19.0000 1.5973 3.0000
H 19.0000 0.5097 3.0000
C 20.2148 2.2986 3.0000
H 21.1567 1.7549 3.0000
C 20.2148 3.7014 3.0000
H 21.1567 4.2451 3.0000
12
angstrom - 17
C 20.0000 4.4027 3.0000
H 20.0000 5.4903 3.0000
C 18.7852 3.7014 3.0000
H 17.8433 4.2451 3.0000
C 18.7852 2.2986 3.0000
H 17.8433 1.7549 3.0000
C 20.0000 1.5973 3.0000
H 20.0000 0.5097 3.0000
C 21.2148 2.2986 3.0000
H 22.1567 1.7549 3.0000
C 21.2148 3.7014 3.0000
H 22.1567 4.2451 3.0000
12
angstrom - 18
C 21.0000 4.4027 3.0000
H 21.0000 5.4903 3.0000
C 19.7852 3.7014 3.0000
H 18.8433 4.2451 3.0000
C 19.7852 2.2986 3.0000
H 18.8433 1.7549 3.0000
C 21.0000 1.5973 3.0000
H 21.0000 0.5097 3.0000
C 22.2148 2.2986 3.0000
H 23.1567 1.7549 3.0000
C 22.2148 3.7014 3.0000
H 23.1567 4.2451 3.0000
12
angstrom - 19
C 22.0000 4.4027 3.0000
H 22.0000 5.4903 3.0000
C 20.7852 3.7014 3.0000
H 19.8433 4.2451 3.0000
C 20.7852 2.2986 3.0000
H 19.8433 1.7549 3.0000
C 22.0000 1.5973 3.0000
H 22.0000 0.5097 3.0000
C 23.2148 2.2986 3.0000
H 24.1567 1.7549 3.0000
C 23.2148 3.7014 3.0000
H 24.1567 4.2451 3.0000
12
angstrom - 20
C 23.0000 4.4027 3.0000
H 23.0000 5.4903 3.0000
C 21.7852 3.7014 3.0000
H 20.8433 4.2451 3.0000
C 21.7852 2.2986 3.0000
H 20.8433 1.7549 3.0000
C 23.0000 1.5973 3.0000
H 23.0000 0.5097 3.0000
C 24.2148 2.2986 3.0000
H 25.1567 1.7549 3.0000
C 24.2148 3.7014 3.0000
H 25.1567 4.2451 3.0000
12
angstrom - 21
C 24.0000 4.4027 3.0000
H 24.0000 5.4903 3.0000
C 22.7852 3.7014 3.0000
H 21.8433 4.2451 3.0000
C 22.7852 2.2986 3.0000
H 21.8433 1.7549 3.0000
C 24.0000 1.5973 3.0000
H 24.0000 0.5097 3.0000
C 25.2148 2.2986 3.0000
H 26.1567 1.7549 3.0000
C 25.2148 3.7014 3.0000
H 26.1567 4.2451 3.0000
12
angstrom - 22
C 25.0000 4.4027 3.0000
H 25.0000 5.4903 3.0000
C 23.7852 3.7014 3.0000
H 22.8433 4.2451 3.0000
C 23.7852 2.2986 3.0000
H 22.8433 1.7549 3.0000
C 25.0000 1.5973 3.0000
H 25.0000 0.5097 3.0000
C 26.2148 2.2986 3.0000
H 27.1567 1.7549 3.0000
C 26.2148 3.7014 3.0000
H 27.1567 4.2451 3.0000
12
angstrom - 23
C 26.0000 4.4027 3.0000
H 26.0000 5.4903 3.0000
C 24.7852 3.7014 3.0000
H 23.8433 4.2451 3.0000
C 24.7852 2.2986 3.0000
H 23.8433 1.7549 3.0000
C 26.0000 1.5973 3.0000
H 26.0000 0.5097 3.0000
C 27.2148 2.2986 3.0000
H 28.1567 1.7549 3.0000
C 27.2148 3.7014 3.0000
H 28.1567 4.2451 3.0000
12
angstrom - 24
C 27.0000 4.4027 3.0000
H 27.0000 5.4903 3.0000
C 25.7852 3.7014 3.0000
H 24.8433 4.2451 3.0000
C 25.7852 2.2986 3.0000
H 24.8433 1.7549 3.0000
C 27.0000 1.5973 3.0000
H 27.0000 0.5097 3.0000
C 28.2148 2.2986 3.0000
H 29.1567 1.7549 3.0000
C 28.2148 3.7014 3.0000
H 29.1567 4.2451 3.0000
12
angstrom - 25
C 28.0000 4.4027 3.0000
H 28.0000 5.4903 3.0000
C 26.7852 3.7014 3.0000
H 25.8433 4.2451 3.0000
C 26.7852 2.2986 3.0000
H 25.8433 1.7549 3.0000
C 28.0000 1.5973 3.0000
H 28.0000 0.5097 3.0000
C 29.2148 2.2986 3.0000
H 30.1567 1.7549 3.0000
C 29.2148 3.7014 3.0000
H 30.1567 4.2451 3.0000
12
angstrom - 26
C 29.0000 4.4027 3.0000
H 29.0000 5.4903 3.0000
C 27.7852 3.7014 3.0000
H 26.8433 4.2451 3.0000
C 27.7852 2.2986 3.0000
H 26.8433 1.7549 3.0000
C 29.0000 1.5973 3.0000
H 29.0000 0.5097 3.0000
C 30.2148 2.2986 3.0000
H 31.1567 1.7549 3.0000
C 30.2148 3.7014 3.0000
H 31.1567 4.2451 3.0000
12
angstrom - 27
C 30.0000 4.4027 3.0000
H 30.0000 5.4903 3.0000
C 28.7852 3.7014 3.0000
H 27.8433 4.2451 3.0000
C 28.7852 2.2986 3.0000
H 27.8433 1.7549 3.0000
C 30.0000 1.5973 3.0000
H 30.0000 0.5097 3.0000
C 31.2148 2.2986 3.0000
H 32.1567 1.7549 3.0000
C 31.2148 3.7014 3.0000
H 32.1567 4.2451 3.0000
12
angstrom - 28
C 31.0000 4.4027 3.0000
H 31.0000 5.4903 3.0000
C 29.7852 3.7014 3.0000
H 28.8433 4.2451 3.0000
C 29.7852 2.2986 3.0000
H 28.8433 1.7549 3.0000
C 31.0000 1.5973 3.0000
H 31.0000 0.5097 3.0000
C 32.2148 2.2986 3.0000
H 33.1567 1.7549 3.0000
C 32.2148 3.7014 3.0000
H 33.1567 4.2451 3.0000
12
angstrom - 29
C 32.0000 4.4027 3.0000
H 32.0000 5.4903 3.0000
C 30.7852 3.7014 3.0000
H 29.8433 4.2451 3.0000
C 30.7852 2.2986 3.0000
H 29.8433 1.7549 3.0000
C 32.0000 1.5973 3.0000
H 32.0000 0.5097 3.0000
C 33.2148 2.2986 3.0000
H 34.1567 1.7549 3.0000
C 33.2148 3.7014 3.0000
H 34.1567 4.2451 3.0000
12
angstrom - 30
C 33.0000 4.4027 3.0000
H 33.0000 5.4903 3.0000
C 31.7852 3.7014 3.0000
H 30.8433 4.2451 3.0000
C 31.7852 2.2986 3.0000
H 30.8433 1.7549 3.0000
C 33.0000 1.5973 3.0000
H 33.0000 0.5097 3.0000
C 34.2148 2.2986 3.0000
H 35.1567 1.7549 3.0000
C 34.2148 3.7014 3.0000
H 35.1567 4.2451 3.0000
12
angstrom - 31
C 34.0000 4.4027 3.0000
H 34.0000 5.4903 3.0000
C 32.7852 3.7014 3.0000
H 31.8433 4.2451 3.0000
C 32.7852 2.2986 3.0000
H 31.8433 1.7549 3.0000
C 34.0000 1.5973 3.0000
H 34.0000 0.5097 3.0000
C 35.2148 2.2986 3.0000
H 36.1567 1.7549 3.0000
C 35.2148 3.7014 3.0000
H 36.1567 4.2451 3.0000
12
angstrom - 32
C 35.0000 4.4027 3.0000
H 35.0000 5.4903 3.0000
C 33.7852 3.7014 3.0000
H 32.8433 4.2451 3.0000
C 33.7852 2.2986 3.0000
H 32.8433 1.7549 3.0000
C 35.0000 1.5973 3.0000
H 35.0000 0.5097 3.0000
C 36.2148 2.2986 3.0000
H 37.1567 1.7549 3.0000
C 36.2148 3.7014 3.0000
H 37.1567 4.2451 3.0000
12
angstrom - 33
C 36.0000 4.4027 3.0000
H 36.0000 5.4903 3.0000
C 34.7852 3.7014 3.0000
H 33.8433 4.2451 3.0000
C 34.7852 2.2986 3.0000
H 33.8433 1.7549 3.0000
C 36.0000 1.5973 3.0000
H 36.0000 0.5097 3.0000
C 37.2148 2.2986 3.0000
H 38.1567 1.7549 3.0000
C 37.2148 3.7014 3.0000
H 38.1567 4.2451 3.0000
12
angstrom - 34
C 37.0000 4.4027 3.0000
H 37.0000 5.4903 3.0000
C 35.7852 3.7014 3.0000
H 34.8433 4.2451 3.0000
C 35.7852 2.2986 3.0000
H 34.8433 1.7549 3.0000
C 37.0000 1.5973 3.0000
H 37.0000 0.5097 3.0000
C 38.2148 2.2986 3.0000
H 39.1567 1.7549 3.0000
C 38.2148 3.7014 3.0000
H 39.1567 4.2451 3.0000
12
angstrom - 35
C 38.0000 4.4027 3.0000
H 38.0000 5.4903 3.0000
C 36.7852 3.7014 3.0000
H 35.8433 4.2451 3.0000
C 36.7852 2.2986 3.0000
H 35.8433 1.7549 3.0000
C 38.0000 1.5973 3.0000
H 38.0000 0.5097 3.0000
C 39.2148 2.2986 3.0000
H 40.1567 1.7549 3.0000
C 39.2148 3.7014 3.0000
H 40.1567 4.2451 3.0000
12
angstrom - 36
C 39.0000 4.4027 3.0000
H 39.0000 5.4903 3.0000
C 37.7852 3.7014 3.0000
H 36.8433 4.2451 3.0000
C 37.7852 2.2986 3.0000
H 36.8433 1.7549 3.0000
C 39.0000 1.5973 3.0000
H 39.0000 0.5097 3.0000
C 40.2148 2.2986 3.0000
H 41.1567 1.7549 3.0000
C 40.2148 3.7014 3.0000
H 41.1567 4.2451 3.0000
12
angstrom - 37
C 40.0000 4.4027 3.0000
H 40.0000 5.4903 3.0000
C 38.7852 3.7014 3.0000
H 37.8433 4.2451 3.0000
C 38.7852 2.2986 3.0000
H 37.8433 1.7549 3.0000
C 40.0000 1.5973 3.0000
H 40.0000 0.5097 3.0000
C 41.2148 2.2986 3.0000
H 42.1567 1.7549 3.0000
C 41.2148 3.7014 3.0000
H 42.1567 4.2451 3.0000
12
angstrom - 38
C 41.0000 4.4027 3.0000
H 41.0000 5.4903 3.0000
C 39.7852 3.7014 3.0000
H 38.8433 4.2451 3.0000
C 39.7852 2.2986 3.0000
H 38.8433 1.7549 3.0000
C 41.0000 1.5973 3.0000
H 41.0000 0.5097 3.0000
C 42.2148 2.2986 3.0000
H 43.1567 1.7549 3.0000
C 42.2148 3.7014 3.0000
H 43.1567 4.2451 3.0000
12
angstrom - 39
C 42.0000 4.4027 3.0000
H 42.0000 5.4903 3.0000
C 40.7852 3.7014 3.0000
H 39.8433 4.2451 3.0000
C 40.7852 2.2986 3.0000
H 39.8433 1.7549 3.0000
C 42.0000 1.5973 3.0000
H 42.0000 0.5097 3.0000
C 43.2148 2.2986 3.0000
H 44.1567 1.7549 3.0000
C 43.2148 3.7014 3.0000
H 44.1567 4.2451 3.0000
12
angstrom - 40
C 43.0000 4.4027 3.0000
H 43.0000 5.4903 3.0000
C 41.7852 3.7014 3.0000
H 40.8433 4.2451 3.0000
C 41.7852 2.2986 3.0000
H 40.8433 1.7549 3.0000
C 43.0000 1.5973 3.0000
H 43.0000 0.5097 3.0000
C 44.2148 2.2986 3.0000
H 45.1567 1.7549 3.0000
C 44.2148 3.7014 3.0000
H 45.1567 4.2451 3.0000
12
angstrom - 41
C 44.0000 4.4027 3.0000
H 44.0000 5.4903 3.0000
C 42.7852 3.7014 3.0000
H 41.8433 4.2451 3.0000
C 42.7852 2.2986 3.0000
H 41.8433 1.7549 3.0000
C 44.0000 1.5973 3.0000
H 44.0000 0.5097 3.0000
C 45.2148 2.2986 3.0000
H 46.1567 1.7549 3.0000
C 45.2148 3.7014 3.0000
H 46.1567 4.2451 3.0000
12
angstrom - 42
C 45.0000 4.4027 3.0000
H 45.0000 5.4903 3.0000
C 43.7852 3.7014 3.0000
H 42.8433 4.2451 3.0000
C 43.7852 2.2986 3.0000
H 42.8433 1.7549 3.0000
C 45.0000 1.5973 3.0000
H 45.0000 0.5097 3.0000
C 46.2148 2.2986 3.0000
H 47.1567 1.7549 3.0000
C 46.2148 3.7014 3.0000
H 47.1567 4.2451 3.0000
12
angstrom - 43
C 46.0000 4.4027 3.0000
H 46.0000 5.4903 3.0000
C 44.7852 3.7014 3.0000
H 43.8433 4.2451 3.0000
C 44.7852 2.2986 3.0000
H 43.8433 1.7549 3.0000
C 46.0000 1.5973 3.0000
H 46.0000 0.5097 3.0000
C 47.2148 2.2986 3.0000
H 48.1567 1.7549 3.0000
C 47.2148 3.7014 3.0000
H 48.1567 4.2451 3.0000
12
angstrom - 44
C 47.0000 4.4027 3.0000
H 47.0000 5.4903 3.0000
C 45.7852 3.7014 3.0000
H 44.8433 4.2451 3.0000
C 45.7852 2.2986 3.0000
H 44.8433 1.7549 3.0000
C 47.0000 1.5973 3.0000
H 47.0000 0.5097 3.0000
C 48.2148 2.2986 3.0000
H 49.1567 1.7549 3.0000
C 48.2148 3.7014 3.0000
H 49.1567 4.2451 3.0000
12
angstrom - 45
C 48.0000 4.4027 3.0000
H 48.0000 5.4903 3.0000
C 46.7852 3.7014 3.0000
H 45.8433 4.2451 3.0000
C 46.7852 2.2986 3.0000
H 45.8433 1.7549 3.0000
C 48.0000 1.5973 3.0000
H 48.0000 0.5097 3.0000
C 49.2148 2.2986 3.0000
H 50.1567 1.7549 3.0000
C 49.2148 3.7014 3.0000
H 50.1567 4.2451 3.0000
12
angstrom - 46
C 49.0000 4.4027 3.0000
H 49.0000 5.4903 3.0000
C 47.7852 3.7014 3.0000
H 46.8433 4.2451 3.0000
C 47.7852 2.2986 3.0000
H 46.8433 1.7549 3.0000
C 49.0000 1.5973 3.0000
H 49.0000 0.5097 3.0000
C 50.2148 2.2986 3.0000
H 51.1567 1.7549 3.0000
C 50.2148 3.7014 3.0000
H 51.1567 4.2451 3.0000
12
angstrom - 47
C 50.0000 4.4027 3.0000
H 50.0000 5.4903 3.0000
C 48.7852 3.7014 3.0000
H 47.8433 4.2451 3.0000
C 48.7852 2.2986 3.0000
H 47.8433 1.7549 3.0000
C 50.0000 1.5973 3.0000
H 50.0000 0.5097 3.0000
C 51.2148 2.2986 3.0000
H 52.1567 1.7549 3.0000
C 51.2148 3.7014 3.0000
H 52.1567 4.2451 3.0000
12
angstrom - 48
C 51.0000 4.4027 3.0000
H 51.0000 5.4903 3.0000
C 49.7852 3.7014 3.0000
H 48.8433 4.2451 3.0000
C 49.7852 2.2986 3.0000
H 48.8433 1.7549 3.0000
C 51.0000 1.5973 3.0000
H 51.0000 0.5097 3.0000
C 52.2148 2.2986 3.0000
H 53.1567 1.7549 3.0000
C 52.2148 3.7014 3.0000
H 53.1567 4.2451 3.0000
12
angstrom - 49
C 52.0000 4.4027 3.0000
H 52.0000 5.4903 3.0000
C 50.7852 3.7014 3.0000
H 49.8433 4.2451 3.0000
C 50.7852 2.2986 3.0000
H 49.8433 1.7549 3.0000
C 52.0000 1.5973 3.0000
H 52.0000 0.5097 3.0000
C 53.2148 2.2986 3.0000
H 54.1567 1.7549 3.0000
C 53.2148 3.7014 3.0000
H 54.1567 4.2451 3.0000
