640
PIYZAZ_clean
Cd      6.746250    6.491582    4.590242
Cd     11.243750    3.894949    2.754145
C       6.746250    8.536898    3.867113
C       8.517545    5.468924    3.867113
C       4.974955    5.468924    3.867113
C       6.746250    6.491582    6.759627
C       9.472455    4.917607    3.477273
C      11.243750    1.849634    3.477273
C      13.015045    4.917607    3.477273
C      11.243750    3.894949    0.584760
Cd     11.243750    9.088215   11.934628
Cd     15.741250    6.491582   10.098532
C      11.243750   11.133531   11.211500
C      13.015045    8.065557   11.211500
C       9.472455    8.065557   11.211500
C      11.243750    9.088215   14.104013
C      13.969955    7.514240   10.821660
C      15.741250    4.446266   10.821660
C      17.512545    7.514240   10.821660
C      15.741250    6.491582    7.929147
Cd     15.741250   11.684848   19.279015
Cd     20.238750    9.088215   17.442919
C      15.741250   13.730164   18.555887
C      17.512545   10.662190   18.555887
C      13.969955   10.662190   18.555887
C      15.741250   11.684848   21.448400
C      18.467455   10.110873   18.166047
C      20.238750    7.042899   18.166047
C      22.010045   10.110873   18.166047
C      20.238750    9.088215   15.273534
Cd     20.238750   14.281481   26.623402
Cd     24.736250   11.684848   24.787305
C      20.238750   16.326796   25.900274
C      22.010045   13.258823   25.900274
C      18.467455   13.258823   25.900274
C      20.238750   14.281481   28.792787
C      22.964955   12.707506   25.510434
C      24.736250    9.639532   25.510434
C      26.507545   12.707506   25.510434
C      24.736250   11.684848   22.617920
Cd     11.243750   14.281481    4.590242
Cd     15.741250   11.684848    2.754145
C      11.243750   16.326796    3.867113
C      13.015045   13.258823    3.867113
C       9.472455   13.258823    3.867113
C      11.243750   14.281481    6.759627
C      13.969955   12.707506    3.477273
C      15.741250    9.639532    3.477273
C      17.512545   12.707506    3.477273
C      15.741250   11.684848    0.584760
Cd     15.741250   16.878113   11.934628
Cd     20.238750   14.281481   10.098532
C      15.741250   18.923429   11.211500
C      17.512545   15.855456   11.211500
C      13.969955   15.855456   11.211500
C      15.741250   16.878113   14.104013
C      18.467455   15.304138   10.821660
C      20.238750   12.236165   10.821660
C      22.010045   15.304138   10.821660
C      20.238750   14.281481    7.929147
Cd     20.238750   19.474746   19.279015
Cd     24.736250   16.878113   17.442919
C      20.238750   21.520062   18.555887
C      22.010045   18.452088   18.555887
C      18.467455   18.452088   18.555887
C      20.238750   19.474746   21.448400
C      22.964955   17.900771   18.166047
C      24.736250   14.832798   18.166047
C      26.507545   17.900771   18.166047
C      24.736250   16.878113   15.273534
Cd     24.736250   22.071379   26.623402
Cd     29.233750   19.474746   24.787305
C      24.736250   24.116695   25.900274
C      26.507545   21.048721   25.900274
C      22.964955   21.048721   25.900274
C      24.736250   22.071379   28.792787
C      27.462455   20.497404   25.510434
C      29.233750   17.429431   25.510434
C      31.005045   20.497404   25.510434
C      29.233750   19.474746   22.617920
Cd     15.741250   22.071379    4.590242
Cd     20.238750   19.474746    2.754145
C      15.741250   24.116695    3.867113
C      17.512545   21.048721    3.867113
C      13.969955   21.048721    3.867113
C      15.741250   22.071379    6.759627
C      18.467455   20.497404    3.477273
C      20.238750   17.429431    3.477273
C      22.010045   20.497404    3.477273
C      20.238750   19.474746    0.584760
Cd     20.238750   24.668012   11.934628
Cd     24.736250   22.071379   10.098532
C      20.238750   26.713328   11.211500
C      22.010045   23.645354   11.211500
C      18.467455   23.645354   11.211500
C      20.238750   24.668012   14.104013
C      22.964955   23.094037   10.821660
C      24.736250   20.026063   10.821660
C      26.507545   23.094037   10.821660
C      24.736250   22.071379    7.929147
Cd     24.736250   27.264645   19.279015
Cd     29.233750   24.668012   17.442919
C      24.736250   29.309961   18.555887
C      26.507545   26.241987   18.555887
C      22.964955   26.241987   18.555887
C      24.736250   27.264645   21.448400
C      27.462455   25.690670   18.166047
C      29.233750   22.622696   18.166047
C      31.005045   25.690670   18.166047
C      29.233750   24.668012   15.273534
Cd     29.233750   29.861278   26.623402
Cd     33.731250   27.264645   24.787305
C      29.233750   31.906593   25.900274
C      31.005045   28.838620   25.900274
C      27.462455   28.838620   25.900274
C      29.233750   29.861278   28.792787
C      31.959955   28.287303   25.510434
C      33.731250   25.219329   25.510434
C      35.502545   28.287303   25.510434
C      33.731250   27.264645   22.617920
Cd     20.238750   29.861278    4.590242
Cd     24.736250   27.264645    2.754145
C      20.238750   31.906593    3.867113
C      22.010045   28.838620    3.867113
C      18.467455   28.838620    3.867113
C      20.238750   29.861278    6.759627
C      22.964955   28.287303    3.477273
C      24.736250   25.219329    3.477273
C      26.507545   28.287303    3.477273
C      24.736250   27.264645    0.584760
Cd     24.736250   32.457910   11.934628
Cd     29.233750   29.861278   10.098532
C      24.736250   34.503226   11.211500
C      26.507545   31.435253   11.211500
C      22.964955   31.435253   11.211500
C      24.736250   32.457910   14.104013
C      27.462455   30.883935   10.821660
C      29.233750   27.815962   10.821660
C      31.005045   30.883935   10.821660
C      29.233750   29.861278    7.929147
Cd     29.233750   35.054543   19.279015
Cd     33.731250   32.457910   17.442919
C      29.233750   37.099859   18.555887
C      31.005045   34.031885   18.555887
C      27.462455   34.031885   18.555887
C      29.233750   35.054543   21.448400
C      31.959955   33.480568   18.166047
C      33.731250   30.412595   18.166047
C      35.502545   33.480568   18.166047
C      33.731250   32.457910   15.273534
Cd     33.731250   37.651176   26.623402
Cd     38.228750   35.054543   24.787305
C      33.731250   39.696492   25.900274
C      35.502545   36.628518   25.900274
C      31.959955   36.628518   25.900274
C      33.731250   37.651176   28.792787
C      36.457455   36.077201   25.510434
C      38.228750   33.009228   25.510434
C      40.000045   36.077201   25.510434
C      38.228750   35.054543   22.617920
Cd     15.741250    6.491582    4.590242
Cd     20.238750    3.894949    2.754145
C      15.741250    8.536898    3.867113
C      17.512545    5.468924    3.867113
C      13.969955    5.468924    3.867113
C      15.741250    6.491582    6.759627
C      18.467455    4.917607    3.477273
C      20.238750    1.849634    3.477273
C      22.010045    4.917607    3.477273
C      20.238750    3.894949    0.584760
Cd     20.238750    9.088215   11.934628
Cd     24.736250    6.491582   10.098532
C      20.238750   11.133531   11.211500
C      22.010045    8.065557   11.211500
C      18.467455    8.065557   11.211500
C      20.238750    9.088215   14.104013
C      22.964955    7.514240   10.821660
C      24.736250    4.446266   10.821660
C      26.507545    7.514240   10.821660
C      24.736250    6.491582    7.929147
Cd     24.736250   11.684848   19.279015
Cd     29.233750    9.088215   17.442919
C      24.736250   13.730164   18.555887
C      26.507545   10.662190   18.555887
C      22.964955   10.662190   18.555887
C      24.736250   11.684848   21.448400
C      27.462455   10.110873   18.166047
C      29.233750    7.042899   18.166047
C      31.005045   10.110873   18.166047
C      29.233750    9.088215   15.273534
Cd     29.233750   14.281481   26.623402
Cd     33.731250   11.684848   24.787305
C      29.233750   16.326796   25.900274
C      31.005045   13.258823   25.900274
C      27.462455   13.258823   25.900274
C      29.233750   14.281481   28.792787
C      31.959955   12.707506   25.510434
C      33.731250    9.639532   25.510434
C      35.502545   12.707506   25.510434
C      33.731250   11.684848   22.617920
Cd     20.238750   14.281481    4.590242
Cd     24.736250   11.684848    2.754145
C      20.238750   16.326796    3.867113
C      22.010045   13.258823    3.867113
C      18.467455   13.258823    3.867113
C      20.238750   14.281481    6.759627
C      22.964955   12.707506    3.477273
C      24.736250    9.639532    3.477273
C      26.507545   12.707506    3.477273
C      24.736250   11.684848    0.584760
Cd     24.736250   16.878113   11.934628
Cd     29.233750   14.281481   10.098532
C      24.736250   18.923429   11.211500
C      26.507545   15.855456   11.211500
C      22.964955   15.855456   11.211500
C      24.736250   16.878113   14.104013
C      27.462455   15.304138   10.821660
C      29.233750   12.236165   10.821660
C      31.005045   15.304138   10.821660
C      29.233750   14.281481    7.929147
Cd     29.233750   19.474746   19.279015
Cd     33.731250   16.878113   17.442919
C      29.233750   21.520062   18.555887
C      31.005045   18.452088   18.555887
C      27.462455   18.452088   18.555887
C      29.233750   19.474746   21.448400
C      31.959955   17.900771   18.166047
C      33.731250   14.832798   18.166047
C      35.502545   17.900771   18.166047
C      33.731250   16.878113   15.273534
Cd     33.731250   22.071379   26.623402
Cd     38.228750   19.474746   24.787305
C      33.731250   24.116695   25.900274
C      35.502545   21.048721   25.900274
C      31.959955   21.048721   25.900274
C      33.731250   22.071379   28.792787
C      36.457455   20.497404   25.510434
C      38.228750   17.429431   25.510434
C      40.000045   20.497404   25.510434
C      38.228750   19.474746   22.617920
Cd     24.736250   22.071379    4.590242
Cd     29.233750   19.474746    2.754145
C      24.736250   24.116695    3.867113
C      26.507545   21.048721    3.867113
C      22.964955   21.048721    3.867113
C      24.736250   22.071379    6.759627
C      27.462455   20.497404    3.477273
C      29.233750   17.429431    3.477273
C      31.005045   20.497404    3.477273
C      29.233750   19.474746    0.584760
Cd     29.233750   24.668012   11.934628
Cd     33.731250   22.071379   10.098532
C      29.233750   26.713328   11.211500
C      31.005045   23.645354   11.211500
C      27.462455   23.645354   11.211500
C      29.233750   24.668012   14.104013
C      31.959955   23.094037   10.821660
C      33.731250   20.026063   10.821660
C      35.502545   23.094037   10.821660
C      33.731250   22.071379    7.929147
Cd     33.731250   27.264645   19.279015
Cd     38.228750   24.668012   17.442919
C      33.731250   29.309961   18.555887
C      35.502545   26.241987   18.555887
C      31.959955   26.241987   18.555887
C      33.731250   27.264645   21.448400
C      36.457455   25.690670   18.166047
C      38.228750   22.622696   18.166047
C      40.000045   25.690670   18.166047
C      38.228750   24.668012   15.273534
Cd     38.228750   29.861278   26.623402
Cd     42.726250   27.264645   24.787305
C      38.228750   31.906593   25.900274
C      40.000045   28.838620   25.900274
C      36.457455   28.838620   25.900274
C      38.228750   29.861278   28.792787
C      40.954955   28.287303   25.510434
C      42.726250   25.219329   25.510434
C      44.497545   28.287303   25.510434
C      42.726250   27.264645   22.617920
Cd     29.233750   29.861278    4.590242
Cd     33.731250   27.264645    2.754145
C      29.233750   31.906593    3.867113
C      31.005045   28.838620    3.867113
C      27.462455   28.838620    3.867113
C      29.233750   29.861278    6.759627
C      31.959955   28.287303    3.477273
C      33.731250   25.219329    3.477273
C      35.502545   28.287303    3.477273
C      33.731250   27.264645    0.584760
Cd     33.731250   32.457910   11.934628
Cd     38.228750   29.861278   10.098532
C      33.731250   34.503226   11.211500
C      35.502545   31.435253   11.211500
C      31.959955   31.435253   11.211500
C      33.731250   32.457910   14.104013
C      36.457455   30.883935   10.821660
C      38.228750   27.815962   10.821660
C      40.000045   30.883935   10.821660
C      38.228750   29.861278    7.929147
Cd     38.228750   35.054543   19.279015
Cd     42.726250   32.457910   17.442919
C      38.228750   37.099859   18.555887
C      40.000045   34.031885   18.555887
C      36.457455   34.031885   18.555887
C      38.228750   35.054543   21.448400
C      40.954955   33.480568   18.166047
C      42.726250   30.412595   18.166047
C      44.497545   33.480568   18.166047
C      42.726250   32.457910   15.273534
Cd     42.726250   37.651176   26.623402
Cd     47.223750   35.054543   24.787305
C      42.726250   39.696492   25.900274
C      44.497545   36.628518   25.900274
C      40.954955   36.628518   25.900274
C      42.726250   37.651176   28.792787
C      45.452455   36.077201   25.510434
C      47.223750   33.009228   25.510434
C      48.995045   36.077201   25.510434
C      47.223750   35.054543   22.617920
Cd     24.736250    6.491582    4.590242
Cd     29.233750    3.894949    2.754145
C      24.736250    8.536898    3.867113
C      26.507545    5.468924    3.867113
C      22.964955    5.468924    3.867113
C      24.736250    6.491582    6.759627
C      27.462455    4.917607    3.477273
C      29.233750    1.849634    3.477273
C      31.005045    4.917607    3.477273
C      29.233750    3.894949    0.584760
Cd     29.233750    9.088215   11.934628
Cd     33.731250    6.491582   10.098532
C      29.233750   11.133531   11.211500
C      31.005045    8.065557   11.211500
C      27.462455    8.065557   11.211500
C      29.233750    9.088215   14.104013
C      31.959955    7.514240   10.821660
C      33.731250    4.446266   10.821660
C      35.502545    7.514240   10.821660
C      33.731250    6.491582    7.929147
Cd     33.731250   11.684848   19.279015
Cd     38.228750    9.088215   17.442919
C      33.731250   13.730164   18.555887
C      35.502545   10.662190   18.555887
C      31.959955   10.662190   18.555887
C      33.731250   11.684848   21.448400
C      36.457455   10.110873   18.166047
C      38.228750    7.042899   18.166047
C      40.000045   10.110873   18.166047
C      38.228750    9.088215   15.273534
Cd     38.228750   14.281481   26.623402
Cd     42.726250   11.684848   24.787305
C      38.228750   16.326796   25.900274
C      40.000045   13.258823   25.900274
C      36.457455   13.258823   25.900274
C      38.228750   14.281481   28.792787
C      40.954955   12.707506   25.510434
C      42.726250    9.639532   25.510434
C      44.497545   12.707506   25.510434
C      42.726250   11.684848   22.617920
Cd     29.233750   14.281481    4.590242
Cd     33.731250   11.684848    2.754145
C      29.233750   16.326796    3.867113
C      31.005045   13.258823    3.867113
C      27.462455   13.258823    3.867113
C      29.233750   14.281481    6.759627
C      31.959955   12.707506    3.477273
C      33.731250    9.639532    3.477273
C      35.502545   12.707506    3.477273
C      33.731250   11.684848    0.584760
Cd     33.731250   16.878113   11.934628
Cd     38.228750   14.281481   10.098532
C      33.731250   18.923429   11.211500
C      35.502545   15.855456   11.211500
C      31.959955   15.855456   11.211500
C      33.731250   16.878113   14.104013
C      36.457455   15.304138   10.821660
C      38.228750   12.236165   10.821660
C      40.000045   15.304138   10.821660
C      38.228750   14.281481    7.929147
Cd     38.228750   19.474746   19.279015
Cd     42.726250   16.878113   17.442919
C      38.228750   21.520062   18.555887
C      40.000045   18.452088   18.555887
C      36.457455   18.452088   18.555887
C      38.228750   19.474746   21.448400
C      40.954955   17.900771   18.166047
C      42.726250   14.832798   18.166047
C      44.497545   17.900771   18.166047
C      42.726250   16.878113   15.273534
Cd     42.726250   22.071379   26.623402
Cd     47.223750   19.474746   24.787305
C      42.726250   24.116695   25.900274
C      44.497545   21.048721   25.900274
C      40.954955   21.048721   25.900274
C      42.726250   22.071379   28.792787
C      45.452455   20.497404   25.510434
C      47.223750   17.429431   25.510434
C      48.995045   20.497404   25.510434
C      47.223750   19.474746   22.617920
Cd     33.731250   22.071379    4.590242
Cd     38.228750   19.474746    2.754145
C      33.731250   24.116695    3.867113
C      35.502545   21.048721    3.867113
C      31.959955   21.048721    3.867113
C      33.731250   22.071379    6.759627
C      36.457455   20.497404    3.477273
C      38.228750   17.429431    3.477273
C      40.000045   20.497404    3.477273
C      38.228750   19.474746    0.584760
Cd     38.228750   24.668012   11.934628
Cd     42.726250   22.071379   10.098532
C      38.228750   26.713328   11.211500
C      40.000045   23.645354   11.211500
C      36.457455   23.645354   11.211500
C      38.228750   24.668012   14.104013
C      40.954955   23.094037   10.821660
C      42.726250   20.026063   10.821660
C      44.497545   23.094037   10.821660
C      42.726250   22.071379    7.929147
Cd     42.726250   27.264645   19.279015
Cd     47.223750   24.668012   17.442919
C      42.726250   29.309961   18.555887
C      44.497545   26.241987   18.555887
C      40.954955   26.241987   18.555887
C      42.726250   27.264645   21.448400
C      45.452455   25.690670   18.166047
C      47.223750   22.622696   18.166047
C      48.995045   25.690670   18.166047
C      47.223750   24.668012   15.273534
Cd     47.223750   29.861278   26.623402
Cd     51.721250   27.264645   24.787305
C      47.223750   31.906593   25.900274
C      48.995045   28.838620   25.900274
C      45.452455   28.838620   25.900274
C      47.223750   29.861278   28.792787
C      49.949955   28.287303   25.510434
C      51.721250   25.219329   25.510434
C      53.492545   28.287303   25.510434
C      51.721250   27.264645   22.617920
Cd     38.228750   29.861278    4.590242
Cd     42.726250   27.264645    2.754145
C      38.228750   31.906593    3.867113
C      40.000045   28.838620    3.867113
C      36.457455   28.838620    3.867113
C      38.228750   29.861278    6.759627
C      40.954955   28.287303    3.477273
C      42.726250   25.219329    3.477273
C      44.497545   28.287303    3.477273
C      42.726250   27.264645    0.584760
Cd     42.726250   32.457910   11.934628
Cd     47.223750   29.861278   10.098532
C      42.726250   34.503226   11.211500
C      44.497545   31.435253   11.211500
C      40.954955   31.435253   11.211500
C      42.726250   32.457910   14.104013
C      45.452455   30.883935   10.821660
C      47.223750   27.815962   10.821660
C      48.995045   30.883935   10.821660
C      47.223750   29.861278    7.929147
Cd     47.223750   35.054543   19.279015
Cd     51.721250   32.457910   17.442919
C      47.223750   37.099859   18.555887
C      48.995045   34.031885   18.555887
C      45.452455   34.031885   18.555887
C      47.223750   35.054543   21.448400
C      49.949955   33.480568   18.166047
C      51.721250   30.412595   18.166047
C      53.492545   33.480568   18.166047
C      51.721250   32.457910   15.273534
Cd     51.721250   37.651176   26.623402
Cd     56.218750   35.054543   24.787305
C      51.721250   39.696492   25.900274
C      53.492545   36.628518   25.900274
C      49.949955   36.628518   25.900274
C      51.721250   37.651176   28.792787
C      54.447455   36.077201   25.510434
C      56.218750   33.009228   25.510434
C      57.990045   36.077201   25.510434
C      56.218750   35.054543   22.617920
Cd     33.731250    6.491582    4.590242
Cd     38.228750    3.894949    2.754145
C      33.731250    8.536898    3.867113
C      35.502545    5.468924    3.867113
C      31.959955    5.468924    3.867113
C      33.731250    6.491582    6.759627
C      36.457455    4.917607    3.477273
C      38.228750    1.849634    3.477273
C      40.000045    4.917607    3.477273
C      38.228750    3.894949    0.584760
Cd     38.228750    9.088215   11.934628
Cd     42.726250    6.491582   10.098532
C      38.228750   11.133531   11.211500
C      40.000045    8.065557   11.211500
C      36.457455    8.065557   11.211500
C      38.228750    9.088215   14.104013
C      40.954955    7.514240   10.821660
C      42.726250    4.446266   10.821660
C      44.497545    7.514240   10.821660
C      42.726250    6.491582    7.929147
Cd     42.726250   11.684848   19.279015
Cd     47.223750    9.088215   17.442919
C      42.726250   13.730164   18.555887
C      44.497545   10.662190   18.555887
C      40.954955   10.662190   18.555887
C      42.726250   11.684848   21.448400
C      45.452455   10.110873   18.166047
C      47.223750    7.042899   18.166047
C      48.995045   10.110873   18.166047
C      47.223750    9.088215   15.273534
Cd     47.223750   14.281481   26.623402
Cd     51.721250   11.684848   24.787305
C      47.223750   16.326796   25.900274
C      48.995045   13.258823   25.900274
C      45.452455   13.258823   25.900274
C      47.223750   14.281481   28.792787
C      49.949955   12.707506   25.510434
C      51.721250    9.639532   25.510434
C      53.492545   12.707506   25.510434
C      51.721250   11.684848   22.617920
Cd     38.228750   14.281481    4.590242
Cd     42.726250   11.684848    2.754145
C      38.228750   16.326796    3.867113
C      40.000045   13.258823    3.867113
C      36.457455   13.258823    3.867113
C      38.228750   14.281481    6.759627
C      40.954955   12.707506    3.477273
C      42.726250    9.639532    3.477273
C      44.497545   12.707506    3.477273
C      42.726250   11.684848    0.584760
Cd     42.726250   16.878113   11.934628
Cd     47.223750   14.281481   10.098532
C      42.726250   18.923429   11.211500
C      44.497545   15.855456   11.211500
C      40.954955   15.855456   11.211500
C      42.726250   16.878113   14.104013
C      45.452455   15.304138   10.821660
C      47.223750   12.236165   10.821660
C      48.995045   15.304138   10.821660
C      47.223750   14.281481    7.929147
Cd     47.223750   19.474746   19.279015
Cd     51.721250   16.878113   17.442919
C      47.223750   21.520062   18.555887
C      48.995045   18.452088   18.555887
C      45.452455   18.452088   18.555887
C      47.223750   19.474746   21.448400
C      49.949955   17.900771   18.166047
C      51.721250   14.832798   18.166047
C      53.492545   17.900771   18.166047
C      51.721250   16.878113   15.273534
Cd     51.721250   22.071379   26.623402
Cd     56.218750   19.474746   24.787305
C      51.721250   24.116695   25.900274
C      53.492545   21.048721   25.900274
C      49.949955   21.048721   25.900274
C      51.721250   22.071379   28.792787
C      54.447455   20.497404   25.510434
C      56.218750   17.429431   25.510434
C      57.990045   20.497404   25.510434
C      56.218750   19.474746   22.617920
Cd     42.726250   22.071379    4.590242
Cd     47.223750   19.474746    2.754145
C      42.726250   24.116695    3.867113
C      44.497545   21.048721    3.867113
C      40.954955   21.048721    3.867113
C      42.726250   22.071379    6.759627
C      45.452455   20.497404    3.477273
C      47.223750   17.429431    3.477273
C      48.995045   20.497404    3.477273
C      47.223750   19.474746    0.584760
Cd     47.223750   24.668012   11.934628
Cd     51.721250   22.071379   10.098532
C      47.223750   26.713328   11.211500
C      48.995045   23.645354   11.211500
C      45.452455   23.645354   11.211500
C      47.223750   24.668012   14.104013
C      49.949955   23.094037   10.821660
C      51.721250   20.026063   10.821660
C      53.492545   23.094037   10.821660
C      51.721250   22.071379    7.929147
Cd     51.721250   27.264645   19.279015
Cd     56.218750   24.668012   17.442919
C      51.721250   29.309961   18.555887
C      53.492545   26.241987   18.555887
C      49.949955   26.241987   18.555887
C      51.721250   27.264645   21.448400
C      54.447455   25.690670   18.166047
C      56.218750   22.622696   18.166047
C      57.990045   25.690670   18.166047
C      56.218750   24.668012   15.273534
Cd     56.218750   29.861278   26.623402
Cd     60.716250   27.264645   24.787305
C      56.218750   31.906593   25.900274
C      57.990045   28.838620   25.900274
C      54.447455   28.838620   25.900274
C      56.218750   29.861278   28.792787
C      58.944955   28.287303   25.510434
C      60.716250   25.219329   25.510434
C      62.487545   28.287303   25.510434
C      60.716250   27.264645   22.617920
Cd     47.223750   29.861278    4.590242
Cd     51.721250   27.264645    2.754145
C      47.223750   31.906593    3.867113
C      48.995045   28.838620    3.867113
C      45.452455   28.838620    3.867113
C      47.223750   29.861278    6.759627
C      49.949955   28.287303    3.477273
C      51.721250   25.219329    3.477273
C      53.492545   28.287303    3.477273
C      51.721250   27.264645    0.584760
Cd     51.721250   32.457910   11.934628
Cd     56.218750   29.861278   10.098532
C      51.721250   34.503226   11.211500
C      53.492545   31.435253   11.211500
C      49.949955   31.435253   11.211500
C      51.721250   32.457910   14.104013
C      54.447455   30.883935   10.821660
C      56.218750   27.815962   10.821660
C      57.990045   30.883935   10.821660
C      56.218750   29.861278    7.929147
Cd     56.218750   35.054543   19.279015
Cd     60.716250   32.457910   17.442919
C      56.218750   37.099859   18.555887
C      57.990045   34.031885   18.555887
C      54.447455   34.031885   18.555887
C      56.218750   35.054543   21.448400
C      58.944955   33.480568   18.166047
C      60.716250   30.412595   18.166047
C      62.487545   33.480568   18.166047
C      60.716250   32.457910   15.273534
Cd     60.716250   37.651176   26.623402
Cd     65.213750   35.054543   24.787305
C      60.716250   39.696492   25.900274
C      62.487545   36.628518   25.900274
C      58.944955   36.628518   25.900274
C      60.716250   37.651176   28.792787
C      63.442455   36.077201   25.510434
C      65.213750   33.009228   25.510434
C      66.985045   36.077201   25.510434
C      65.213750   35.054543   22.617920
