80
PIYZAZ_clean
Cd      6.746250    6.491582    4.590242
Cd     11.243750    3.894949    2.754145
C       6.746250    8.536898    3.867113
C       8.517545    5.468924    3.867113
C       4.974955    5.468924    3.867113
C       6.746250    6.491582    6.759627
C       9.472455    4.917607    3.477273
C      11.243750    1.849634    3.477273
C      13.015045    4.917607    3.477273
C      11.243750    3.894949    0.584760
Cd     11.243750    9.088215   11.934628
Cd     15.741250    6.491582   10.098532
C      11.243750   11.133531   11.211500
C      13.015045    8.065557   11.211500
C       9.472455    8.065557   11.211500
C      11.243750    9.088215   14.104013
C      13.969955    7.514240   10.821660
C      15.741250    4.446266   10.821660
C      17.512545    7.514240   10.821660
C      15.741250    6.491582    7.929147
Cd     11.243750   14.281481    4.590242
Cd     15.741250   11.684848    2.754145
C      11.243750   16.326796    3.867113
C      13.015045   13.258823    3.867113
C       9.472455   13.258823    3.867113
C      11.243750   14.281481    6.759627
C      13.969955   12.707506    3.477273
C      15.741250    9.639532    3.477273
C      17.512545   12.707506    3.477273
C      15.741250   11.684848    0.584760
Cd     15.741250   16.878113   11.934628
Cd     20.238750   14.281481   10.098532
C      15.741250   18.923429   11.211500
C      17.512545   15.855456   11.211500
C      13.969955   15.855456   11.211500
C      15.741250   16.878113   14.104013
C      18.467455   15.304138   10.821660
C      20.238750   12.236165   10.821660
C      22.010045   15.304138   10.821660
C      20.238750   14.281481    7.929147
Cd     15.741250    6.491582    4.590242
Cd     20.238750    3.894949    2.754145
C      15.741250    8.536898    3.867113
C      17.512545    5.468924    3.867113
C      13.969955    5.468924    3.867113
C      15.741250    6.491582    6.759627
C      18.467455    4.917607    3.477273
C      20.238750    1.849634    3.477273
C      22.010045    4.917607    3.477273
C      20.238750    3.894949    0.584760
Cd     20.238750    9.088215   11.934628
Cd     24.736250    6.491582   10.098532
C      20.238750   11.133531   11.211500
C      22.010045    8.065557   11.211500
C      18.467455    8.065557   11.211500
C      20.238750    9.088215   14.104013
C      22.964955    7.514240   10.821660
C      24.736250    4.446266   10.821660
C      26.507545    7.514240   10.821660
C      24.736250    6.491582    7.929147
Cd     20.238750   14.281481    4.590242
Cd     24.736250   11.684848    2.754145
C      20.238750   16.326796    3.867113
C      22.010045   13.258823    3.867113
C      18.467455   13.258823    3.867113
C      20.238750   14.281481    6.759627
C      22.964955   12.707506    3.477273
C      24.736250    9.639532    3.477273
C      26.507545   12.707506    3.477273
C      24.736250   11.684848    0.584760
Cd     24.736250   16.878113   11.934628
Cd     29.233750   14.281481   10.098532
C      24.736250   18.923429   11.211500
C      26.507545   15.855456   11.211500
C      22.964955   15.855456   11.211500
C      24.736250   16.878113   14.104013
C      27.462455   15.304138   10.821660
C      29.233750   12.236165   10.821660
C      31.005045   15.304138   10.821660
C      29.233750   14.281481    7.929147
